*Heading
** Job name: CementCnt Model name: Model-1
** Generated by: Abaqus/CAE 2021
*Preprint, echo=NO, model=NO, history=NO, contact=NO
**
** PARTS
**
*Part, name=Part-1
*End Part
**  
**
** ASSEMBLY
**
*Assembly, name=Assembly
**  
*Instance, name=Part-1-1, part=Part-1
*Node
      1,         -20.,         -20.,          80.
      2,         -20.,         -20.,          30.
      3,           0.,         -20.,          30.
      4,           0.,         -20.,          80.
      5,          20.,         -20.,          30.
      6,          20.,         -20.,          80.
      7,         -20.,          20.,          30.
      8,          20.,          20.,          30.
      9,          20.,          20.,          80.
     10,         -20.,          20.,          80.
     11,         -20.,         -20.,         130.
     12,           0.,         -20.,         130.
     13,          20.,         -20.,         130.
     14,          20.,          20.,         130.
     15,         -20.,          20.,         130.
     16,          20.,         -20.,         160.
     17,           0.,         -20.,         160.
     18,         -20.,         -20.,         160.
     19,          20.,          20.,         160.
     20,         -20.,          20.,         160.
** ... 2653 like lines cut
*Element, type=C3D8R
  1,  110,  516, 1302,  418,    1,   26,  301,   49
  2,  516,  517, 1303, 1302,   26,   27,  302,  301
  3,  517,  518, 1304, 1303,   27,   28,  303,  302
  4,  518,  519, 1305, 1304,   28,   29,  304,  303
  5,  519,  520, 1306, 1305,   29,   30,  305,  304
  6,  520,  521, 1307, 1306,   30,   31,  306,  305
  7,  521,  522, 1308, 1307,   31,   32,  307,  306
  8,  522,  523, 1309, 1308,   32,   33,  308,  307
  9,  523,  524, 1310, 1309,   33,   34,  309,  308
 10,  524,  118,  467, 1310,   34,    2,   35,  309
 11,  418, 1302, 1311,  419,   49,  301,  310,   48
 12, 1302, 1303, 1312, 1311,  301,  302,  311,  310
 13, 1303, 1304, 1313, 1312,  302,  303,  312,  311
 14, 1304, 1305, 1314, 1313,  303,  304,  313,  312
 15, 1305, 1306, 1315, 1314,  304,  305,  314,  313
 16, 1306, 1307, 1316, 1315,  305,  306,  315,  314
 17, 1307, 1308, 1317, 1316,  306,  307,  316,  315
 18, 1308, 1309, 1318, 1317,  307,  308,  317,  316
 19, 1309, 1310, 1319, 1318,  308,  309,  318,  317
 20, 1310,  467,  468, 1319,  309,   35,   36,  318
** ... 2028 like lines cut
*Nset, nset=Set-1, generate
    1,  2673,     1
*Elset, elset=Set-1, generate
    1,  2048,     1
** Section: Section-1
*Solid Section, elset=Set-1, material=Material-1
,
*End Instance
**  
*Nset, nset=Constraints, instance=Part-1-1
   2,   3,   5,  11,  12,  13,  35,  36,  37,  50,  51,  52, 143, 144, 145, 155
 156, 157
*Nset, nset=Loads, instance=Part-1-1
  90,  91,  92,  93,  94,  95,  96, 355, 364, 373, 382, 391, 400, 409, 704, 713
 722, 731, 740, 749, 758
*Nset, nset=Monitor, instance=Part-1-1
 4,
*End Assembly
** 
** MATERIALS
** 
*Material, name=Material-1
*Elastic
1., 0.2
** ----------------------------------------------------------------
** 
** STEP: Step-1
** 
*Step, name=Step-1, nlgeom=NO
*Static
1., 1., 1e-05, 1.
** 
** BOUNDARY CONDITIONS
** 
** Name: Constraints Type: Displacement/Rotation
*Boundary
Constraints, 1, 1
Constraints, 2, 2
Constraints, 3, 3
** 
** LOADS
** 
** Name: Loads   Type: Concentrated force
*Cload
Loads, 2, -1.
** 
** OUTPUT REQUESTS
** 
*Restart, write, frequency=0
** 
** FIELD OUTPUT: F-Output-1
** 
*Output, field, variable=PRESELECT
** 
** HISTORY OUTPUT: H-Output-1
** 
*Output, history, variable=PRESELECT
*End Step
