*Heading
** Job name: MortarTensile Model name: Model-1
** Generated by: Abaqus/CAE 2021
*Preprint, echo=NO, model=NO, history=NO, contact=NO
**
** PARTS
**
*Part, name=Part-1
*End Part
**  
**
** ASSEMBLY
**
*Assembly, name=Assembly
**  
*Instance, name=Part-1-1, part=Part-1
*Node
      1,         -15.,           0.,           0.
      2,           0.,           0.,           0.
      3,           0.,         -15.,           0.
      4,           0.,          15.,           0.
      5,          15.,           0.,           0.
      6,   11.2111397,  -9.96545792,           0.
      7,           0.,           0.,         500.
      8,          15.,           0.,         500.
      9,           0.,          15.,         500.
     10,           0.,         -15.,         500.
     11,   11.2111397,  -9.96545792,         500.
     12,         -15.,           0.,         500.
     13,         -7.5,           0.,           0.
     14,           0.,         -7.5,           0.
     15,         -7.5,  -12.9903812,           0.
     16,  -12.9903812,         -7.5,           0.
     17,  -12.9903812,          7.5,           0.
     18,         -7.5,   12.9903812,           0.
     19,           0.,          7.5,           0.
     20,          7.5,   12.9903812,           0.
** ... 6302 like lines cut
*Element, type=C3D10
   1,  666,  667,  560,  668, 1000,  999,  998, 1002, 1001, 1003
   2,  666,  669,  667,  670, 1005, 1004, 1000, 1007, 1006, 1008
   3,  666,  561,  668,  560, 1010, 1009, 1002,  998, 1011, 1003
   4,  561,  551,  550,  666, 1014, 1013, 1012, 1010, 1015, 1016
   5,  538,  539,  671,  672, 1019, 1018, 1017, 1021, 1020, 1022
   6,  666,  673,  553,  674, 1025, 1024, 1023, 1027, 1026, 1028
   7,  666,  563,  668,  562, 1030, 1029, 1002, 1032, 1031, 1033
   8,  302,  675,  676,  303, 1036, 1035, 1034, 1038, 1037, 1039
   9,  306,  677,  305,  678, 1042, 1041, 1040, 1044, 1043, 1045
  10,  677,  679,  675,  676, 1048, 1047, 1046, 1050, 1049, 1035
  11,  677,  680,  314,  315, 1053, 1052, 1051, 1055, 1054, 1056
  12,  681,  682,  683,  684, 1059, 1058, 1057, 1061, 1060, 1062
  13,  607,  606,  685,  596, 1065, 1064, 1063, 1067, 1066, 1068
  14,  682,  686,  681,  268, 1070, 1069, 1059, 1072, 1071, 1073
  15,  687,  268,  258,  269, 1076, 1075, 1074, 1078, 1077, 1079
  16,  246,  247,  687,  257, 1082, 1081, 1080, 1084, 1083, 1085
  17,  608,  618,  619,  688, 1088, 1087, 1086, 1090, 1089, 1091
  18,  257,  268,  258,  687, 1093, 1075, 1092, 1085, 1076, 1074
  19,  689,  690,  691,  692, 1096, 1095, 1094, 1098, 1097, 1099
  20,  484,  693,  694,  695, 1102, 1101, 1100, 1104, 1103, 1105
** ... 3646 like lines cut
*Nset, nset=Set-1, generate
    1,  6322,     1
*Elset, elset=Set-1, generate
    1,  3666,     1
** Section: Section-1
*Solid Section, elset=Set-1, material=Material-1
,
*End Instance
**  
*Nset, nset=Constraints, instance=Part-1-1
   7,   8,   9,  10,  11,  12,  23,  24,  25,  26,  27,  28,  29,  30,  31,  32
  36, 664, 665
*Nset, nset=Loads, instance=Part-1-1
 2,
*Nset, nset=Monitor, instance=Part-1-1
 2,
*End Assembly
** 
** MATERIALS
** 
*Material, name=Material-1
*Elastic
1., 0.2
** ----------------------------------------------------------------
** 
** STEP: Step-1
** 
*Step, name=Step-1, nlgeom=NO
*Static
1., 1., 1e-05, 1.
** 
** BOUNDARY CONDITIONS
** 
** Name: Constraints Type: Displacement/Rotation
*Boundary
Constraints, 1, 1
Constraints, 2, 2
Constraints, 3, 3
** 
** LOADS
** 
** Name: Load-1   Type: Concentrated force
*Cload
Loads, 3, -1.
** 
** OUTPUT REQUESTS
** 
*Restart, write, frequency=0
** 
** FIELD OUTPUT: F-Output-1
** 
*Output, field, variable=PRESELECT
** 
** HISTORY OUTPUT: H-Output-1
** 
*Output, history, variable=PRESELECT
*End Step
