*Heading
** Job name: ReinfConcrBeam Model name: Model-1
** Generated by: Abaqus/CAE 2021
*Preprint, echo=NO, model=NO, history=NO, contact=NO
**
** PARTS
**
*Part, name=Beam
*End Part
**  
*Part, name=Rebar
*End Part
**  
**
** ASSEMBLY
**
*Assembly, name=Assembly
**  
*Instance, name=Beam-1, part=Beam
*Node
      1,         -75.,         125.,          50.
      2,         -75.,        -125.,          50.
      3,         -75.,        -125.,         717.
      4,         -75.,         125.,         717.
      5,          75.,        -125.,          50.
      6,          75.,        -125.,         717.
      7,          75.,         125.,         717.
      8,          75.,         125.,          50.
      9,         -75.,        -125.,        1383.
     10,         -75.,         125.,        1383.
     11,          75.,        -125.,        1383.
     12,          75.,         125.,        1383.
     13,         -75.,         125.,           0.
     14,         -75.,        -125.,           0.
     15,          75.,         125.,           0.
     16,          75.,        -125.,           0.
     17,         -75.,        -125.,        2050.
     18,         -75.,         125.,        2050.
     19,          75.,        -125.,        2050.
     20,          75.,         125.,        2050.
** ... 2500 like lines cut
*Element, type=C3D8R
  1,  130,  703, 1495,  589,    1,   25,  361,   74
  2,  703,  704, 1496, 1495,   25,   26,  362,  361
  3,  704,  705, 1497, 1496,   26,   27,  363,  362
  4,  705,  706, 1498, 1497,   27,   28,  364,  363
  5,  706,  707, 1499, 1498,   28,   29,  365,  364
  6,  707,  708, 1500, 1499,   29,   30,  366,  365
  7,  708,  134,  646, 1500,   30,    2,   31,  366
  8,  589, 1495, 1501,  590,   74,  361,  367,   73
  9, 1495, 1496, 1502, 1501,  361,  362,  368,  367
 10, 1496, 1497, 1503, 1502,  362,  363,  369,  368
 11, 1497, 1498, 1504, 1503,  363,  364,  370,  369
 12, 1498, 1499, 1505, 1504,  364,  365,  371,  370
 13, 1499, 1500, 1506, 1505,  365,  366,  372,  371
 14, 1500,  646,  647, 1506,  366,   31,   32,  372
 15,  590, 1501, 1507,  591,   73,  367,  373,   72
 16, 1501, 1502, 1508, 1507,  367,  368,  374,  373
 17, 1502, 1503, 1509, 1508,  368,  369,  375,  374
 18, 1503, 1504, 1510, 1509,  369,  370,  376,  375
 19, 1504, 1505, 1511, 1510,  370,  371,  377,  376
 20, 1505, 1506, 1512, 1511,  371,  372,  378,  377
** ... 1716 like lines cut
*Nset, nset=Set-1, generate
    1,  2520,     1
*Elset, elset=Set-1, generate
    1,  1736,     1
** Section: Section-1
*Solid Section, elset=Set-1, material=Material-1
,
*End Instance
**  
*Instance, name=Rebar-1, part=Rebar
*Node
      1,          55.,         105.,        2075.
      2,         -55.,         105.,        2075.
      3,         -55.,        -105.,        2075.
      4,         -55.,        -105.,        2025.
      5,          55.,        -105.,        2025.
      6,          55.,        -105.,        1975.
      7,          55.,         105.,        1975.
      8,          55.,         105.,        1925.
      9,         -55.,         105.,        1925.
     10,         -55.,        -105.,        1925.
     11,         -55.,        -105.,        1875.
     12,          55.,        -105.,        1875.
     13,          55.,        -105.,        1825.
     14,          55.,         105.,        1825.
     15,          55.,         105.,        1775.
     16,         -55.,         105.,        1775.
     17,         -55.,        -105.,        1775.
     18,         -55.,        -105.,        1725.
     19,          55.,        -105.,        1725.
     20,          55.,        -105.,        1675.
** ... 492 like lines cut
*Element, type=B31
1,   1, 177
2, 177,   2
3,   2, 178
4, 178, 179
5, 179, 180
6, 180,   3
7, 4, 3
 8,   4, 181
 9, 181,   5
10, 6, 5
11,   6, 182
12, 182, 183
13, 183, 184
14, 184,   7
15, 8, 7
16,   8, 185
17, 185,   9
18,   9, 186
19, 186, 187
20, 187, 188
** ... 656 like lines cut
*Nset, nset=Wire-2-Set-2, generate
   1,  176,    1
*Elset, elset=Wire-2-Set-2
   7,  10,  15,  22,  25,  30,  37,  40,  45,  52,  55,  60,  67,  70,  75,  82
  85,  90,  97, 100, 105, 112, 115, 120, 127, 130, 135, 142, 145, 150, 157, 160
 165, 172, 175, 180, 187, 190, 195, 202, 205, 210, 217, 224, 229, 232, 239, 240
 247, 254, 259, 262, 269, 270, 277, 284, 289, 292, 299, 300, 307, 314, 319, 322
 329, 330, 337, 344, 349, 352, 359, 360, 367, 374, 379, 382, 389, 390, 397, 404
 409, 412, 419, 420, 427, 434, 439, 442, 449, 450, 457, 464, 469, 472, 479, 480
 487, 494, 499, 502, 509, 510, 517, 524, 529, 532, 539, 540, 547, 554, 559, 562
 569, 570, 577, 584, 589, 592, 599, 600, 607, 614, 619, 622, 629, 630, 631, 632
 633, 634, 635, 636, 637, 638, 639, 640, 641, 642, 643, 644, 645, 646, 647, 648
 649, 650, 651, 652, 653, 654, 655, 656, 657, 658, 659, 660, 661, 662, 663, 664
 665, 666, 667, 668, 669, 670, 671, 672, 673, 674, 675, 676
*Nset, nset=Wire-1-Set-1
   1,   2,   3,   4,   5,   6,   7,   8,   9,  10,  11,  12,  13,  14,  15,  16
  17,  18,  19,  20,  21,  22,  23,  24,  25,  26,  27,  28,  29,  30,  31,  32
  33,  34,  35,  36,  37,  38,  39,  40,  41,  42,  43,  44,  45,  46,  47,  48
  49,  50,  51,  52,  53,  54,  55,  56,  57,  58,  59,  60,  61,  62,  63,  64
  65,  66,  67,  68,  69,  70,  71,  72,  73,  74,  75,  76,  77,  78,  79,  80
  81,  82,  83,  84,  85,  86,  87,  88,  89,  90,  91,  92,  93,  94,  95,  96
  97,  98, 100, 101, 102, 104, 105, 106, 107, 108, 109, 110, 111, 112, 113, 114
 115, 116, 117, 118, 119, 120, 121, 122, 123, 124, 125, 126, 127, 128, 129, 130
 131, 132, 133, 134, 135, 136, 137, 138, 139, 140, 141, 142, 143, 144, 145, 146
 147, 148, 149, 150, 151, 152, 153, 154, 155, 156, 157, 158, 159, 160, 161, 162
 163, 164, 165, 166, 167, 168, 169, 170, 177, 178, 179, 180, 181, 182, 183, 184
 185, 186, 187, 188, 189, 190, 191, 192, 193, 194, 195, 196, 197, 198, 199, 200
 201, 202, 203, 204, 205, 206, 207, 208, 209, 210, 211, 212, 213, 214, 215, 216
 217, 218, 219, 220, 221, 222, 223, 224, 225, 226, 227, 228, 229, 230, 231, 232
 233, 234, 235, 236, 237, 238, 239, 240, 241, 242, 243, 244, 245, 246, 247, 248
 249, 250, 251, 252, 253, 254, 255, 256, 257, 258, 259, 260, 261, 262, 263, 264
 265, 266, 267, 268, 269, 270, 271, 272, 273, 274, 275, 276, 277, 278, 279, 280
 281, 282, 283, 284, 285, 286, 287, 288, 289, 290, 291, 292, 293, 294, 295, 296
 297, 298, 299, 300, 301, 302, 303, 304, 305, 306, 307, 308, 309, 310, 311, 312
 313, 314, 315, 316, 317, 318, 319, 320, 321, 322, 323, 324, 325, 326, 327, 328
** ... 12 like lines cut
*Elset, elset=Wire-1-Set-1
   1,   2,   3,   4,   5,   6,   8,   9,  11,  12,  13,  14,  16,  17,  18,  19
  20,  21,  23,  24,  26,  27,  28,  29,  31,  32,  33,  34,  35,  36,  38,  39
  41,  42,  43,  44,  46,  47,  48,  49,  50,  51,  53,  54,  56,  57,  58,  59
  61,  62,  63,  64,  65,  66,  68,  69,  71,  72,  73,  74,  76,  77,  78,  79
  80,  81,  83,  84,  86,  87,  88,  89,  91,  92,  93,  94,  95,  96,  98,  99
 101, 102, 103, 104, 106, 107, 108, 109, 110, 111, 113, 114, 116, 117, 118, 119
 121, 122, 123, 124, 125, 126, 128, 129, 131, 132, 133, 134, 136, 137, 138, 139
 140, 141, 143, 144, 146, 147, 148, 149, 151, 152, 153, 154, 155, 156, 158, 159
 161, 162, 163, 164, 166, 167, 168, 169, 170, 171, 173, 174, 176, 177, 178, 179
 181, 182, 183, 184, 185, 186, 188, 189, 191, 192, 193, 194, 196, 197, 198, 199
 200, 201, 203, 204, 206, 207, 208, 209, 211, 212, 213, 214, 215, 216, 218, 219
 220, 221, 222, 223, 225, 226, 227, 228, 230, 231, 233, 234, 235, 236, 237, 238
 241, 242, 243, 244, 245, 246, 248, 249, 250, 251, 252, 253, 255, 256, 257, 258
 260, 261, 263, 264, 265, 266, 267, 268, 271, 272, 273, 274, 275, 276, 278, 279
 280, 281, 282, 283, 285, 286, 287, 288, 290, 291, 293, 294, 295, 296, 297, 298
 301, 302, 303, 304, 305, 306, 308, 309, 310, 311, 312, 313, 315, 316, 317, 318
 320, 321, 323, 324, 325, 326, 327, 328, 331, 332, 333, 334, 335, 336, 338, 339
 340, 341, 342, 343, 345, 346, 347, 348, 350, 351, 353, 354, 355, 356, 357, 358
 361, 362, 363, 364, 365, 366, 368, 369, 370, 371, 372, 373, 375, 376, 377, 378
 380, 381, 383, 384, 385, 386, 387, 388, 391, 392, 393, 394, 395, 396, 398, 399
** ... 12 like lines cut
*Nset, nset=Set-3, generate
   1,  512,    1
*Elset, elset=Set-3, generate
   1,  676,    1
** Section: Section-3
*Solid Section, elset=Set-3, material=Material-1
1.,
*End Instance
**  
*Nset, nset=Constraints, instance=Beam-1
   2,   5,  17,  19, 134, 135, 136, 340, 341, 342
*Nset, nset=Loads, instance=Beam-1
 126, 226
*Nset, nset=Monitor, instance=Beam-1
 1052,
*End Assembly
** 
** MATERIALS
** 
*Material, name=Material-1
*Elastic
1., 0.2
** ----------------------------------------------------------------
** 
** STEP: Step-1
** 
*Step, name=Step-1, nlgeom=NO
*Static
1., 1., 1e-05, 1.
** 
** BOUNDARY CONDITIONS
** 
** Name: Constaint Type: Displacement/Rotation
*Boundary
Constraints, 1, 1
Constraints, 2, 2
Constraints, 3, 3
** 
** LOADS
** 
** Name: Load   Type: Concentrated force
*Cload
Loads, 2, -1.
** 
** OUTPUT REQUESTS
** 
*Restart, write, frequency=0
** 
** FIELD OUTPUT: F-Output-1
** 
*Output, field, variable=PRESELECT
** 
** HISTORY OUTPUT: H-Output-1
** 
*Output, history, variable=PRESELECT
*End Step
